
**** 06/05/23 16:00:24 ****** PSpice 17.2.0 (March 2016) ****** ID# 0 ********

 ** Profile: "SCHEMATIC1-Transient"  [ C:\OrCAD projects\Opamp Circuits\Comparator\Comparator-PSpiceFiles\SCHEMATIC1\Transient.sim ] 


 ****     CIRCUIT DESCRIPTION


******************************************************************************




** Creating circuit file "Transient.cir" 
** WARNING: THIS AUTOMATICALLY GENERATED FILE MAY BE OVERWRITTEN BY SUBSEQUENT SIMULATIONS

*Libraries: 
* Profile Libraries :
* Local Libraries :
* From [PSPICE NETLIST] section of C:\Users\devan\AppData\Roaming\SPB_Data\cdssetup\OrCAD_PSpice\17.2.0\PSpice.ini file:
.lib "nom.lib" 

*Analysis directives: 
.TRAN  0 5m 0 0.1u 
.OPTIONS ADVCONV
.PROBE64 V(alias(*)) I(alias(*)) W(alias(*)) D(alias(*)) NOISE(alias(*)) 
.INC "..\SCHEMATIC1.net" 



**** INCLUDING SCHEMATIC1.net ****
* source COMPARATOR
X_U1A         N00276 0 VCC VEE N00434 TL084
V_V1         VCC 0 15
V_V2         0 VEE 15
V_V3         N00276 0  AC 0
+SIN 0 2 10k 0 0 0
V_V4         N00708 0  AC 0
+SIN 0 2 10k 0 0 0
X_U1B         N01015 N00708 VCC VEE N00744 TL084
V_V5         N01015 0 0.5

**** RESUMING Transient.cir ****
.END

**** 06/05/23 16:00:24 ****** PSpice 17.2.0 (March 2016) ****** ID# 0 ********

 ** Profile: "SCHEMATIC1-Transient"  [ C:\OrCAD projects\Opamp Circuits\Comparator\Comparator-PSpiceFiles\SCHEMATIC1\Transient.sim ] 


 ****     Diode MODEL PARAMETERS


******************************************************************************




               X_U1A.x_tl084.dx 
          IS  800.000000E-18 


               X_U1A.x_tl084.dy 
          IS  800.000000E-18 
          RS    1.000000E-03 
         CJO   10.000000E-12 


               X_U1B.x_tl084.dx 
          IS  800.000000E-18 


               X_U1B.x_tl084.dy 
          IS  800.000000E-18 
          RS    1.000000E-03 
         CJO   10.000000E-12 


**** 06/05/23 16:00:24 ****** PSpice 17.2.0 (March 2016) ****** ID# 0 ********

 ** Profile: "SCHEMATIC1-Transient"  [ C:\OrCAD projects\Opamp Circuits\Comparator\Comparator-PSpiceFiles\SCHEMATIC1\Transient.sim ] 


 ****     Junction FET MODEL PARAMETERS


******************************************************************************




               X_U1A.x_tl084.jx1 
               NJF             
         VTO   -1            
        BETA  222.070000E-06 
          IS  100.000000E-12 


               X_U1A.x_tl084.jx2 
               NJF             
         VTO   -1            
        BETA  222.070000E-06 
          IS  100.000000E-12 


               X_U1B.x_tl084.jx1 
               NJF             
         VTO   -1            
        BETA  222.070000E-06 
          IS  100.000000E-12 


               X_U1B.x_tl084.jx2 
               NJF             
         VTO   -1            
        BETA  222.070000E-06 
          IS  100.000000E-12 


**** 06/05/23 16:00:24 ****** PSpice 17.2.0 (March 2016) ****** ID# 0 ********

 ** Profile: "SCHEMATIC1-Transient"  [ C:\OrCAD projects\Opamp Circuits\Comparator\Comparator-PSpiceFiles\SCHEMATIC1\Transient.sim ] 


 ****     INITIAL TRANSIENT SOLUTION       TEMPERATURE =   27.000 DEG C


******************************************************************************



 NODE   VOLTAGE     NODE   VOLTAGE     NODE   VOLTAGE     NODE   VOLTAGE


(  VCC)   15.0000  (  VEE)  -15.0000  (N00276)    0.0000 (N00434)   -4.0013     

(N00708)    0.0000 (N00744)   13.5010 (N01015)     .5000                        

(X_U1A.x_tl084.6) 377.1E-06           (X_U1A.x_tl084.7)   -4.0013               

(X_U1A.x_tl084.8)   -4.0013           (X_U1A.x_tl084.9)    0.0000               

(X_U1B.x_tl084.6)  -12.1430           (X_U1B.x_tl084.7)   15.5340               

(X_U1B.x_tl084.8)   15.5340           (X_U1B.x_tl084.9)    0.0000               

(X_U1A.x_tl084.10)     .3992          (X_U1A.x_tl084.11)   14.5750              

(X_U1A.x_tl084.12)   14.5750          (X_U1A.x_tl084.53)   12.6840              

(X_U1A.x_tl084.54)  -12.6840          (X_U1A.x_tl084.90)-8.570E-09              

(X_U1A.x_tl084.91)   40.0000          (X_U1A.x_tl084.92)  -40.0000              

(X_U1A.x_tl084.99)    0.0000          (X_U1B.x_tl084.10)     .7032              

(X_U1B.x_tl084.11)   14.8960          (X_U1B.x_tl084.12)   14.2520              

(X_U1B.x_tl084.53)   12.6840          (X_U1B.x_tl084.54)  -12.6840              

(X_U1B.x_tl084.90)   40.6660          (X_U1B.x_tl084.91)   40.0000              

(X_U1B.x_tl084.92)  -40.0000          (X_U1B.x_tl084.99)    0.0000          




    VOLTAGE SOURCE CURRENTS
    NAME         CURRENT

    V_V1        -4.989E-03
    V_V2        -4.565E-02
    V_V3         2.150E-10
    V_V4         2.156E-10
    V_V5         2.139E-10
    X_U1A.x_tl084.vb   3.771E-09
    X_U1A.x_tl084.vc   1.669E-11
    X_U1A.x_tl084.ve   1.042E-11
    X_U1A.x_tl084.vlim  -8.570E-12
    X_U1A.x_tl084.vlp  -4.000E-11
    X_U1A.x_tl084.vln  -4.000E-11
    X_U1B.x_tl084.vb  -1.214E-04
    X_U1B.x_tl084.vc  -4.067E-02
    X_U1B.x_tl084.ve   2.792E-11
    X_U1B.x_tl084.vlim   4.067E-02
    X_U1B.x_tl084.vlp   1.217E-04
    X_U1B.x_tl084.vln  -8.067E-11

    TOTAL POWER DISSIPATION   8.49E-01  WATTS



          JOB CONCLUDED

**** 06/05/23 16:00:24 ****** PSpice 17.2.0 (March 2016) ****** ID# 0 ********

 ** Profile: "SCHEMATIC1-Transient"  [ C:\OrCAD projects\Opamp Circuits\Comparator\Comparator-PSpiceFiles\SCHEMATIC1\Transient.sim ] 


 ****     JOB STATISTICS SUMMARY


******************************************************************************



  Total job time (using Solver 1)   =        2.70
