
**** 06/05/23 21:47:38 ****** PSpice 17.2.0 (March 2016) ****** ID# 0 ********

 ** Profile: "SCHEMATIC1-Transient"  [ C:\OrCAD projects\Opamp Circuits\Time marker\TimeMarker-PSpiceFiles\SCHEMATIC1\Transient.sim ]


 ****     CIRCUIT DESCRIPTION


******************************************************************************




** Creating circuit file "Transient.cir" 
** WARNING: THIS AUTOMATICALLY GENERATED FILE MAY BE OVERWRITTEN BY SUBSEQUENT SIMULATIONS

*Libraries: 
* Profile Libraries :
* Local Libraries :
* From [PSPICE NETLIST] section of C:\Users\devan\AppData\Roaming\SPB_Data\cdssetup\OrCAD_PSpice\17.2.0\PSpice.ini file:
.lib "nom.lib" 

*Analysis directives: 
.TRAN  0 5m 0 0.1u 
.OPTIONS ADVCONV
.PROBE64 V(alias(*)) I(alias(*)) W(alias(*)) D(alias(*)) NOISE(alias(*)) 
.INC "..\SCHEMATIC1.net" 



**** INCLUDING SCHEMATIC1.net ****
* source TIMEMARKER
X_U1A         N00157 0 VCC VEE N00490 TL084
V_V1         VCC 0 15
V_V2         0 VEE 15
V_V3         N00157 0  AC 0
+SIN 0 2 1k 0 0 0
C_C1         N00490 N00477  0.1u  TC=0,0 
R_R1         N00501 N00477  1k TC=0,0 
D_D1         N00477 N00494 D1N4001 
R_R2         N00501 N00494  1k TC=0,0 

**** RESUMING Transient.cir ****
.END

ERROR(ORPSIM-15142): Node N00477 is floating

ERROR(ORPSIM-15142): Node N00501 is floating

ERROR(ORPSIM-15142): Node N00494 is floating
